rawData/test/dss_scripts/BranchData.dss
New Line.line_2_3 phases=3 Bus1=2.1.2.3 Bus2=3.1.2.3 rmatrix=(9.999999999999997e-07 | 0.0 9.999999999999997e-07 | 0.0 0.0 9.999999999999997e-07) xmatrix=(9.999999999999997e-07 | 0.0 9.999999999999997e-07 | 0.0 0.0 9.999999999999997e-07)
New Line.line_4_5 phases=3 Bus1=4.1.2.3 Bus2=5.1.2.3 rmatrix=(1e-06 | 0.0 1e-06 | 0.0 0.0 1e-06) xmatrix=(1e-06 | 0.0 1e-06 | 0.0 0.0 1e-06)
New Line.line_5_6 phases=3 Bus1=5.1.2.3 Bus2=6.1.2.3 rmatrix=(1e-06 | 0.0 1e-06 | 0.0 0.0 1e-06) xmatrix=(1e-06 | 0.0 1e-06 | 0.0 0.0 1e-06)
New Line.line_5_632 phases=3 Bus1=5.1.2.3 Bus2=632.1.2.3 rmatrix=(1e-06 | 0.0 1e-06 | 0.0 0.0 1e-06) xmatrix=(1e-06 | 0.0 1e-06 | 0.0 0.0 1e-06)
New Line.line_6_7 phases=3 Bus1=6.1.2.3 Bus2=7.1.2.3 rmatrix=(0.2629299999999153 | 0.093208 0.26997999999996514 | 0.09892379999999999 0.103135 0.28335799999994343) xmatrix=(0.7519319999999375 | 0.3219989999999763 0.7343109999999861 | 0.2740559999999364 0.2978489999998935 0.7020359999999383)
New Line.line_7_8 phases=3 Bus1=7.1.2.3 Bus2=8.1.2.3 rmatrix=(0.1971974999998968 | 0.069906 0.20248499999985478 | 0.07419285 0.07735125000000002 0.2125184999998782) xmatrix=(0.5639489999999532 | 0.2414992499998632 0.5507332499999499 | 0.2055419999999523 0.2233867499999598 0.5265269999998743)
New Line.line_8_9 phases=3 Bus1=8.1.2.3 Bus2=9.1.2.3 rmatrix=(0.1971974999998968 | 0.069906 0.20248499999985478 | 0.07419285 0.07735125000000002 0.2125184999998782) xmatrix=(0.5639489999999532 | 0.2414992499998632 0.5507332499999499 | 0.2055419999999523 0.2233867499999598 0.5265269999998743)
New Line.line_9_10 phases=3 Bus1=9.1.2.3 Bus2=10.1.2.3 rmatrix=(0.5258599999999892 | 0.1864159999998972 0.5399599999999303 | 0.1978475999999634 0.206269999999857 0.5667159999998869) xmatrix=(1.503863999999875 | 0.6439979999999526 1.4686219999999721 | 0.5481119999998728 0.5956979999999457 1.4040719999998765)
New Line.line_10_11 phases=3 Bus1=10.1.2.3 Bus2=11.1.2.3 rmatrix=(0.5258599999999892 | 0.1864159999998972 0.5399599999999303 | 0.1978475999999634 0.206269999999857 0.5667159999998869) xmatrix=(1.503863999999875 | 0.6439979999999526 1.4686219999999721 | 0.5481119999998728 0.5956979999999457 1.4040719999998765)
New Line.line_11_12 phases=3 Bus1=11.1.2.3 Bus2=12.1.2.3 rmatrix=(0.5258599999999892 | 0.1864159999998972 0.5399599999999303 | 0.1978475999999634 0.206269999999857 0.5667159999998869) xmatrix=(1.503863999999875 | 0.6439979999999526 1.4686219999999721 | 0.5481119999998728 0.5956979999999457 1.4040719999998765)
New Line.line_12_13 phases=3 Bus1=12.1.2.3 Bus2=13.1.2.3 rmatrix=(0.2629299999999153 | 0.093208 0.26997999999996514 | 0.09892379999999999 0.103135 0.28335799999994343) xmatrix=(0.7519319999999375 | 0.3219989999999763 0.7343109999999861 | 0.2740559999999364 0.2978489999998935 0.7020359999999383)
New Line.line_13_14 phases=3 Bus1=13.1.2.3 Bus2=14.1.2.3 rmatrix=(0.2629299999999153 | 0.093208 0.26997999999996514 | 0.09892379999999999 0.103135 0.28335799999994343) xmatrix=(0.7519319999999375 | 0.3219989999999763 0.7343109999999861 | 0.2740559999999364 0.2978489999998935 0.7020359999999383)
New Line.line_14_15 phases=3 Bus1=14.1.2.3 Bus2=15.1.2.3 rmatrix=(0.2629299999999153 | 0.093208 0.26997999999996514 | 0.09892379999999999 0.103135 0.28335799999994343) xmatrix=(0.7519319999999375 | 0.3219989999999763 0.7343109999999861 | 0.2740559999999364 0.2978489999998935 0.7020359999999383)
New Line.line_15_16 phases=3 Bus1=15.1.2.3 Bus2=16.1.2.3 rmatrix=(1e-06 | 0.0 1e-06 | 0.0 0.0 1e-06) xmatrix=(1e-06 | 0.0 1e-06 | 0.0 0.0 1e-06)
New Line.line_16_17 phases=3 Bus1=16.1.2.3 Bus2=17.1.2.3 rmatrix=(1e-06 | 0.0 1e-06 | 0.0 0.0 1e-06) xmatrix=(1e-06 | 0.0 1e-06 | 0.0 0.0 1e-06)
New Line.line_16_2338 phases=3 Bus1=16.1.2.3 Bus2=2338.1.2.3 rmatrix=(1e-06 | 0.0 1e-06 | 0.0 0.0 1e-06) xmatrix=(1e-06 | 0.0 1e-06 | 0.0 0.0 1e-06)
New Line.line_19_20 phases=3 Bus1=19.1.2.3 Bus2=20.1.2.3 rmatrix=(1.0000000000000002e-06 | 0.0 1.0000000000000002e-06 | 0.0 0.0 1.0000000000000002e-06) xmatrix=(1.0000000000000002e-06 | 0.0 1.0000000000000002e-06 | 0.0 0.0 1.0000000000000002e-06)
New Line.line_20_21 phases=3 Bus1=20.1.2.3 Bus2=21.1.2.3 rmatrix=(0.016971273880789412 | 0.0069106564147951915 0.016632815069195884 | 0.007136107066080865 0.006960686723805071 0.0170768026356057) xmatrix=(0.04374346015617429 | 0.02096181954596528 0.04454513929116038 | 0.019375494207834014 0.02201453015607202 0.043495005619083885)
New Line.line_21_22 phases=3 Bus1=21.1.2.3 Bus2=22.1.2.3 rmatrix=(0.012148087035228402 | 0.004946667892299001 0.011905817236864314 | 0.005108046121962001 0.004982479732503 0.012223624823798275) xmatrix=(0.03131169557052565 | 0.015004531188989385 0.0318855398190171 | 0.013869034913978008 0.015758064494985874 0.03113385109272804)
New Line.line_21_259 phases=1 Bus1=21.3 Bus2=259.3 rmatrix=(0.06178203477089847) xmatrix=(0.04934442982929225)
New Line.line_22_23 phases=3 Bus1=22.1.2.3 Bus2=23.1.2.3 rmatrix=(0.020254432201599715 | 0.008247549524282381 0.019850497228857976 | 0.008516614472701143 0.008307258389336838 0.020380375900625053) xmatrix=(0.052205801062435046 | 0.025016964300868912 0.05316256811487058 | 0.02312375821412565 0.026273325834482813 0.05190928203787545)
New Line.line_23_24 phases=3 Bus1=23.1.2.3 Bus2=24.1.2.3 rmatrix=(0.013054675557710109 | 0.005315828264847274 0.012794325627230542 | 0.0054892498434216605 0.0053543126742558326 0.013135850587101943) xmatrix=(0.033648427579547335 | 0.016124290680475478 0.03426509672779199 | 0.014904054488207995 0.01693405873722959 0.0334573109082073)
New Line.line_24_25 phases=3 Bus1=24.1.2.3 Bus2=25.1.2.3 rmatrix=(0.00542581551977599 | 0.0022093772742490005 0.005317608258162977 | 0.002281455166062001 0.002225372256653 0.005459553679897053) xmatrix=(0.01398504005482523 | 0.0067016163084873655 0.014241341563069049 | 0.006194458819924317 0.00703817404753923 0.01390560768617596)
New Line.line_25_26 phases=1 Bus1=25.3 Bus2=26.3 rmatrix=(0.09751093356731498) xmatrix=(0.05441690735711852)
New Line.line_25_27 phases=3 Bus1=25.1.2.3 Bus2=27.1.2.3 rmatrix=(0.023924903345839847 | 0.009742155358615223 0.02344776801640767 | 0.01005997976468203 0.009812684554941628 0.024073670331561818) xmatrix=(0.0616664408105278 | 0.029550492798175437 0.06279659143762055 | 0.027314203368377844 0.031034529870156945 0.061316187150877215)
New Line.line_27_28 phases=3 Bus1=27.1.2.3 Bus2=28.1.2.3 rmatrix=(0.017337096702065576 | 0.00705961846939867 0.016991342270929206 | 0.007289928802632823 0.007110727202393029 0.017444900172796596) xmatrix=(0.044686368515272204 | 0.021413660228006635 0.04550532817527648 | 0.01979314099171814 0.022489062450307337 0.044432558437969755)
New Line.line_28_29 phases=3 Bus1=28.1.2.3 Bus2=29.1.2.3 rmatrix=(0.022676578506938175 | 0.00923384089051697 0.022224338571007574 | 0.009535082236880774 0.0093006900992448 0.02281758330776081) xmatrix=(0.0584488834111297 | 0.028008642717175375 0.05952006639772192 | 0.025889035708274177 0.02941524748725991 0.058116904865773984)
New Line.line_29_30 phases=1 Bus1=29.3 Bus2=30.3 rmatrix=(0.09797684240057652) xmatrix=(0.054676912229276446)
New Line.line_29_35 phases=3 Bus1=29.1.2.3 Bus2=35.1.2.3 rmatrix=(0.007991017351280164 | 0.0032539204603780005 0.007831652164248163 | 0.003360075135564001 0.0032774775056660004 0.008040706144040469) xmatrix=(0.020596848036768662 | 0.009869987655775627 0.020974323052660324 | 0.009123057673333575 0.010365662217999028 0.020479861855837295)
New Line.line_30_31 phases=1 Bus1=30.3 Bus2=31.3 rmatrix=(0.055171285178877406) xmatrix=(0.03078886238207797)
New Line.line_31_32 phases=1 Bus1=31.3 Bus2=32.3 rmatrix=(0.1497586977977956) xmatrix=(0.08357427096479712)
New Line.line_32_33 phases=1 Bus1=32.3 Bus2=33.3 rmatrix=(0.1616995427423996) xmatrix=(0.09023797347839894)
New Line.line_33_34 phases=1 Bus1=33.3 Bus2=34.3 rmatrix=(0.16287091214861843) xmatrix=(0.09089166735791558)
New Line.line_35_36 phases=3 Bus1=35.1.2.3 Bus2=36.1.2.3 rmatrix=(0.010461504618151806 | 0.004259896134237001 0.010252870402153986 | 0.004398869380806001 0.004290736029489001 0.01052655510072298) xmatrix=(0.026964529218736266 | 0.012921373700365323 0.027458703670920043 | 0.0119435243080759 0.013570290039029135 0.02681137581932489)
New Line.line_36_37 phases=3 Bus1=36.1.2.3 Bus2=37.1.2.3 rmatrix=(0.10168871719607563 | 0.021157106429012203 0.10063146966501099 | 0.021859835212939712 0.02131390096170684 0.10201753948888784) xmatrix=(0.13385960091784313 | 0.0597910330917317 0.1351799678315489 | 0.0563344753071563 0.06246438756774945 0.1334523044231957)
New Line.line_36_161 phases=3 Bus1=36.1.2.3 Bus2=161.1.2.3 rmatrix=(0.019397697557107383 | 0.007898689514815928 0.019010848478543174 | 0.008156373385718632 0.007955872776942765 0.01951831401076077) xmatrix=(0.04999756742900157 | 0.023958781094189464 0.05091386455009959 | 0.022145655022897937 0.02516200026166872 0.04971359075164385)
New Line.line_37_38 phases=3 Bus1=37.1.2.3 Bus2=38.1.2.3 rmatrix=(1.0000000000000002e-06 | 0.0 1.0000000000000002e-06 | 0.0 0.0 1.0000000000000002e-06) xmatrix=(1.0000000000000002e-06 | 0.0 1.0000000000000002e-06 | 0.0 0.0 1.0000000000000002e-06)
New Line.line_38_39 phases=3 Bus1=38.1.2.3 Bus2=39.1.2.3 rmatrix=(0.03541405589000733 | 0.007368162075473647 0.03504585945497489 | 0.007612894009513606 0.007422767251911389 0.03552857135815974) xmatrix=(0.046617869897776026 | 0.020822791810315853 0.04707770014213943 | 0.01961901292564043 0.021753812747918183 0.046476025047897336)
New Line.line_39_40 phases=3 Bus1=39.1.2.3 Bus2=40.1.2.3 rmatrix=(0.09344021434334827 | 0.019440943047790277 0.09246872568029235 | 0.020086669830526427 0.019585019157188154 0.09374236414293502) xmatrix=(0.12300154969563142 | 0.054941070179191656 0.1242148147542352 | 0.05176489184606997 0.05739757491386153 0.12262729114649769)
New Line.line_40_41 phases=3 Bus1=40.1.2.3 Bus2=41.1.2.3 rmatrix=(0.09534380345657505 | 0.019836999154863713 0.09435252336586127 | 0.020495880856841935 0.01998401042141142 0.09565210873293609) xmatrix=(0.12550737026289727 | 0.05606034439958411 0.12674535228274775 | 0.05281946010940979 0.058566893707698325 0.1251254872181987)
New Line.line_41_42 phases=3 Bus1=41.1.2.3 Bus2=42.1.2.3 rmatrix=(0.10150110149003631 | 0.021118071562905922 0.10044580458090582 | 0.02181950381206697 0.021274576809651564 0.10182931710564007) xmatrix=(0.1336126299241204 | 0.059680718622266635 0.13493056076057128 | 0.05623053818757623 0.06234914075867514 0.13320608489159969)
New Line.line_41_145 phases=1 Bus1=41.1 Bus2=145.1 rmatrix=(0.054129633343199646) xmatrix=(0.043232565973157354)
New Line.line_42_43 phases=3 Bus1=42.1.2.3 Bus2=43.1.2.3 rmatrix=(0.09810704235275573 | 0.020411911898648643 0.09708703314064891 | 0.021089889204965743 0.02056318382226011 0.0984242828834316) xmatrix=(0.12914480483855312 | 0.057685076354491716 0.13041866585574252 | 0.05435026527301854 0.06026427007464017 0.1287518541203993)
New Line.line_43_44 phases=3 Bus1=43.1.2.3 Bus2=44.1.2.3 rmatrix=(0.07499612833082671 | 0.015603511506588116 0.07421640100509061 | 0.016121778817990953 0.0157191485528579 0.07523863703336134) xmatrix=(0.09872237634182152 | 0.044096298138307774 0.09969615602195152 | 0.04154706299853394 0.046067915451276545 0.09842199237569553)
New Line.line_44_45 phases=1 Bus1=44.2 Bus2=45.2 rmatrix=(0.054129633343199646) xmatrix=(0.043232565973157354)
New Line.line_44_61 phases=3 Bus1=44.1.2.3 Bus2=61.1.2.3 rmatrix=(0.09417056689340572 | 0.01959289841765251 0.09319148482715363 | 0.020243672365635946 0.019738100662671076 0.09447507837289956) xmatrix=(0.12396296118331641 | 0.05537050359809363 0.12518570943110205 | 0.052169499444941834 0.057846209000378374 0.12358577733389797)
New Line.line_45_46 phases=1 Bus1=45.2 Bus2=46.2 rmatrix=(1.0000000000000002e-06) xmatrix=(1.0000000000000002e-06)
New Line.line_46_47 phases=1 Bus1=46.2 Bus2=47.2 rmatrix=(0.054129633343199646) xmatrix=(0.043232565973157354)
New Line.line_47_48 phases=1 Bus1=47.2 Bus2=48.2 rmatrix=(0.054129633343199646) xmatrix=(0.043232565973157354)
New Line.line_48_49 phases=1 Bus1=48.2 Bus2=49.2 rmatrix=(0.054129633343199646) xmatrix=(0.043232565973157354)
New Line.line_49_50 phases=1 Bus1=49.2 Bus2=50.2 rmatrix=(0.054129633343199646) xmatrix=(0.043232565973157354)
New Line.line_50_51 phases=1 Bus1=50.2 Bus2=51.2 rmatrix=(0.054129633343199646) xmatrix=(0.043232565973157354)
New Line.line_51_52 phases=1 Bus1=51.2 Bus2=52.2 rmatrix=(0.054129633343199646) xmatrix=(0.043232565973157354)
New Line.line_52_53 phases=1 Bus1=52.2 Bus2=53.2 rmatrix=(0.054129633343199646) xmatrix=(0.043232565973157354)
New Line.line_53_54 phases=1 Bus1=53.2 Bus2=54.2 rmatrix=(0.054129633343199646) xmatrix=(0.043232565973157354)
New Line.line_54_55 phases=1 Bus1=54.2 Bus2=55.2 rmatrix=(0.054129633343199646) xmatrix=(0.043232565973157354)
New Line.line_55_56 phases=1 Bus1=55.2 Bus2=56.2 rmatrix=(0.054129633343199646) xmatrix=(0.043232565973157354)
New Line.line_56_57 phases=1 Bus1=56.2 Bus2=57.2 rmatrix=(0.054129633343199646) xmatrix=(0.043232565973157354)
New Line.line_57_58 phases=1 Bus1=57.2 Bus2=58.2 rmatrix=(0.054129633343199646) xmatrix=(0.043232565973157354)
New Line.line_58_59 phases=1 Bus1=58.2 Bus2=59.2 rmatrix=(0.054129633343199646) xmatrix=(0.043232565973157354)
New Line.line_59_60 phases=1 Bus1=59.2 Bus2=60.2 rmatrix=(0.054129633343199646) xmatrix=(0.043232565973157354)
New Line.line_61_62 phases=3 Bus1=61.1.2.3 Bus2=62.1.2.3 rmatrix=(0.1258457388627585 | 0.02618315742564898 0.12453733316764708 | 0.0270528254229671 0.02637719983626313 0.12625267569443457) xmatrix=(0.16565909026955192 | 0.07399490272149163 0.167293121599744 | 0.06971721016801617 0.077303335343644 0.16515503702039916)
New Line.line_62_63 phases=3 Bus1=62.1.2.3 Bus2=63.1.2.3 rmatrix=(0.10891753729100936 | 0.02266111710317557 0.10778513243267453 | 0.02341380128131517 0.022829057803313346 0.10926973481426065) xmatrix=(0.1433753761158787 | 0.06404144192201279 0.1447896049165389 | 0.06033916529014277 0.06690483909981822 0.1429391258378966)
New Line.line_62_129 phases=1 Bus1=62.3 Bus2=129.3 rmatrix=(0.054129633343199646) xmatrix=(0.043232565973157354)
New Line.line_63_64 phases=1 Bus1=63.2 Bus2=64.2 rmatrix=(0.054129633343199646) xmatrix=(0.043232565973157354)
New Line.line_63_80 phases=3 Bus1=63.1.2.3 Bus2=80.1.2.3 rmatrix=(0.08486186003882631 | 0.017656151578185984 0.08397955967669095 | 0.01824259689239274 0.017787000664056897 0.08513627073215997) xmatrix=(0.11170929313661891 | 0.04989716088190696 0.11281117341714741 | 0.04701257416453442 0.05212814421647652 0.11136939369569723)
New Line.line_64_65 phases=1 Bus1=64.2 Bus2=65.2 rmatrix=(1.0000000000000002e-06) xmatrix=(1.0000000000000002e-06)
New Line.line_65_66 phases=1 Bus1=65.2 Bus2=66.2 rmatrix=(0.054129633343199646) xmatrix=(0.043232565973157354)
New Line.line_66_67 phases=1 Bus1=66.2 Bus2=67.2 rmatrix=(0.054129633343199646) xmatrix=(0.043232565973157354)
New Line.line_67_68 phases=1 Bus1=67.2 Bus2=68.2 rmatrix=(0.054129633343199646) xmatrix=(0.043232565973157354)
New Line.line_68_69 phases=1 Bus1=68.2 Bus2=69.2 rmatrix=(0.054129633343199646) xmatrix=(0.043232565973157354)
New Line.line_69_70 phases=1 Bus1=69.2 Bus2=70.2 rmatrix=(0.054129633343199646) xmatrix=(0.043232565973157354)
New Line.line_70_71 phases=1 Bus1=70.2 Bus2=71.2 rmatrix=(0.054129633343199646) xmatrix=(0.043232565973157354)
New Line.line_71_72 phases=1 Bus1=71.2 Bus2=72.2 rmatrix=(0.054129633343199646) xmatrix=(0.043232565973157354)
New Line.line_72_73 phases=1 Bus1=72.2 Bus2=73.2 rmatrix=(0.054129633343199646) xmatrix=(0.043232565973157354)
New Line.line_73_74 phases=1 Bus1=73.2 Bus2=74.2 rmatrix=(0.054129633343199646) xmatrix=(0.043232565973157354)
New Line.line_74_75 phases=1 Bus1=74.2 Bus2=75.2 rmatrix=(0.054129633343199646) xmatrix=(0.043232565973157354)
New Line.line_75_76 phases=1 Bus1=75.2 Bus2=76.2 rmatrix=(0.054129633343199646) xmatrix=(0.043232565973157354)
New Line.line_76_77 phases=1 Bus1=76.2 Bus2=77.2 rmatrix=(0.054129633343199646) xmatrix=(0.043232565973157354)
New Line.line_77_78 phases=1 Bus1=77.2 Bus2=78.2 rmatrix=(0.054129633343199646) xmatrix=(0.043232565973157354)
New Line.line_78_79 phases=1 Bus1=78.2 Bus2=79.2 rmatrix=(0.054129633343199646) xmatrix=(0.043232565973157354)
New Line.line_80_81 phases=3 Bus1=80.1.2.3 Bus2=81.1.2.3 rmatrix=(0.11451458079935824 | 0.02382562432147024 0.11332398403346848 | 0.02461698735884564 0.02400219514150352 0.1148848770136952) xmatrix=(0.1507431355980139 | 0.06733239713170834 0.15223003864678003 | 0.06343986827871931 0.07034293827718109 0.15028446733439524)
New Line.line_81_82 phases=3 Bus1=81.1.2.3 Bus2=82.1.2.3 rmatrix=(0.0957170357369076 | 0.019914652952605482 0.0947218751871045 | 0.020576113908934626 0.02006223970857239 0.09602654790324869) xmatrix=(0.1259986806606659 | 0.056279797887042675 0.12724150887749938 | 0.053026226850691034 0.05879615931802568 0.12561530269889581)
New Line.line_81_113 phases=1 Bus1=81.3 Bus2=113.3 rmatrix=(0.054129633343199646) xmatrix=(0.043232565973157354)
New Line.line_82_83 phases=1 Bus1=82.1 Bus2=83.1 rmatrix=(0.054129633343199646) xmatrix=(0.043232565973157354)
New Line.line_82_99 phases=3 Bus1=82.1.2.3 Bus2=99.1.2.3 rmatrix=(0.08782622216297983 | 0.01827290953014378 0.08691310162114535 | 0.018879840328360285 0.018408329386367044 0.08811021846597655) xmatrix=(0.11561147955273558 | 0.05164014947246127 0.11675185029490762 | 0.04865479947220798 0.05394906466585802 0.11525970687419813)
New Line.line_83_84 phases=1 Bus1=83.1 Bus2=84.1 rmatrix=(1.0000000000000002e-06) xmatrix=(1.0000000000000002e-06)
New Line.line_84_85 phases=1 Bus1=84.1 Bus2=85.1 rmatrix=(0.054129633343199646) xmatrix=(0.043232565973157354)
New Line.line_85_86 phases=1 Bus1=85.1 Bus2=86.1 rmatrix=(0.054129633343199646) xmatrix=(0.043232565973157354)
New Line.line_86_87 phases=1 Bus1=86.1 Bus2=87.1 rmatrix=(0.054129633343199646) xmatrix=(0.043232565973157354)
New Line.line_87_88 phases=1 Bus1=87.1 Bus2=88.1 rmatrix=(0.054129633343199646) xmatrix=(0.043232565973157354)
New Line.line_88_89 phases=1 Bus1=88.1 Bus2=89.1 rmatrix=(0.054129633343199646) xmatrix=(0.043232565973157354)
New Line.line_89_90 phases=1 Bus1=89.1 Bus2=90.1 rmatrix=(0.054129633343199646) xmatrix=(0.043232565973157354)
New Line.line_90_91 phases=1 Bus1=90.1 Bus2=91.1 rmatrix=(0.054129633343199646) xmatrix=(0.043232565973157354)
New Line.line_91_92 phases=1 Bus1=91.1 Bus2=92.1 rmatrix=(0.054129633343199646) xmatrix=(0.043232565973157354)
New Line.line_92_93 phases=1 Bus1=92.1 Bus2=93.1 rmatrix=(0.054129633343199646) xmatrix=(0.043232565973157354)
New Line.line_93_94 phases=1 Bus1=93.1 Bus2=94.1 rmatrix=(0.054129633343199646) xmatrix=(0.043232565973157354)
New Line.line_94_95 phases=1 Bus1=94.1 Bus2=95.1 rmatrix=(0.054129633343199646) xmatrix=(0.043232565973157354)
New Line.line_95_96 phases=1 Bus1=95.1 Bus2=96.1 rmatrix=(0.054129633343199646) xmatrix=(0.043232565973157354)
New Line.line_96_97 phases=1 Bus1=96.1 Bus2=97.1 rmatrix=(0.054129633343199646) xmatrix=(0.043232565973157354)
New Line.line_97_98 phases=1 Bus1=97.1 Bus2=98.1 rmatrix=(0.054129633343199646) xmatrix=(0.043232565973157354)
New Line.line_99_100 phases=3 Bus1=99.1.2.3 Bus2=100.1.2.3 rmatrix=(0.12506532739280582 | 0.02602078691903603 0.1237650355585361 | 0.026885061814557604 0.026213626007830053 0.12546974067323835) xmatrix=(0.16463178290645644 | 0.07353603560907562 0.16625568106245933 | 0.06928487045624357 0.07682395153523829 0.16413085545989944)
New Line.line_101_102 phases=3 Bus1=101.1.2.3 Bus2=102.1.2.3 rmatrix=(0.010708099999999995 | 0.002789784999999997 0.010606549999999994 | 0.002858179999999995 0.0028044599999999917 0.010740049999999994) xmatrix=(0.03174784999999999 | 0.013743499999999992 0.03261874999999999 | 0.01232639999999999 0.014545999999999995 0.03147719999999999)
New Line.line_101_104 phases=3 Bus1=101.1.2.3 Bus2=104.1.2.3 rmatrix=(0.010708099999999995 | 0.002789784999999997 0.010606549999999994 | 0.002858179999999995 0.0028044599999999917 0.010740049999999994) xmatrix=(0.03174784999999999 | 0.013743499999999992 0.03261874999999999 | 0.01232639999999999 0.014545999999999995 0.03147719999999999)
New Line.line_102_103 phases=3 Bus1=102.1.2.3 Bus2=103.1.2.3 rmatrix=(9.999999999999995e-07 | 0.0 9.999999999999995e-07 | 0.0 0.0 9.999999999999995e-07) xmatrix=(9.999999999999995e-07 | 0.0 9.999999999999995e-07 | 0.0 0.0 9.999999999999995e-07)
New Line.line_104_105 phases=3 Bus1=104.1.2.3 Bus2=105.1.2.3 rmatrix=(9.999999999999995e-07 | 0.0 9.999999999999995e-07 | 0.0 0.0 9.999999999999995e-07) xmatrix=(9.999999999999995e-07 | 0.0 9.999999999999995e-07 | 0.0 0.0 9.999999999999995e-07)
New Line.line_106_107 phases=3 Bus1=106.1.2.3 Bus2=107.1.2.3 rmatrix=(0.010708099999999995 | 0.002789784999999997 0.010606549999999994 | 0.002858179999999995 0.0028044599999999917 0.010740049999999994) xmatrix=(0.03174784999999999 | 0.013743499999999992 0.03261874999999999 | 0.01232639999999999 0.014545999999999995 0.03147719999999999)
New Line.line_106_109 phases=3 Bus1=106.1.2.3 Bus2=109.1.2.3 rmatrix=(0.010708099999999995 | 0.002789784999999997 0.010606549999999994 | 0.002858179999999995 0.0028044599999999917 0.010740049999999994) xmatrix=(0.03174784999999999 | 0.013743499999999992 0.03261874999999999 | 0.01232639999999999 0.014545999999999995 0.03147719999999999)
New Line.line_106_111 phases=3 Bus1=106.1.2.3 Bus2=111.1.2.3 rmatrix=(0.010708099999999995 | 0.002789784999999997 0.010606549999999994 | 0.002858179999999995 0.0028044599999999917 0.010740049999999994) xmatrix=(0.03174784999999999 | 0.013743499999999992 0.03261874999999999 | 0.01232639999999999 0.014545999999999995 0.03147719999999999)
New Line.line_107_108 phases=3 Bus1=107.1.2.3 Bus2=108.1.2.3 rmatrix=(9.999999999999995e-07 | 0.0 9.999999999999995e-07 | 0.0 0.0 9.999999999999995e-07) xmatrix=(9.999999999999995e-07 | 0.0 9.999999999999995e-07 | 0.0 0.0 9.999999999999995e-07)
New Line.line_109_110 phases=3 Bus1=109.1.2.3 Bus2=110.1.2.3 rmatrix=(9.999999999999995e-07 | 0.0 9.999999999999995e-07 | 0.0 0.0 9.999999999999995e-07) xmatrix=(9.999999999999995e-07 | 0.0 9.999999999999995e-07 | 0.0 0.0 9.999999999999995e-07)
New Line.line_111_112 phases=3 Bus1=111.1.2.3 Bus2=112.1.2.3 rmatrix=(9.999999999999995e-07 | 0.0 9.999999999999995e-07 | 0.0 0.0 9.999999999999995e-07) xmatrix=(9.999999999999995e-07 | 0.0 9.999999999999995e-07 | 0.0 0.0 9.999999999999995e-07)
New Line.line_113_114 phases=1 Bus1=113.3 Bus2=114.3 rmatrix=(1.0000000000000002e-06) xmatrix=(1.0000000000000002e-06)
New Line.line_114_115 phases=1 Bus1=114.3 Bus2=115.3 rmatrix=(0.054129633343199646) xmatrix=(0.043232565973157354)
New Line.line_115_116 phases=1 Bus1=115.3 Bus2=116.3 rmatrix=(0.054129633343199646) xmatrix=(0.043232565973157354)
New Line.line_116_117 phases=1 Bus1=116.3 Bus2=117.3 rmatrix=(0.054129633343199646) xmatrix=(0.043232565973157354)
New Line.line_117_118 phases=1 Bus1=117.3 Bus2=118.3 rmatrix=(0.054129633343199646) xmatrix=(0.043232565973157354)
New Line.line_118_119 phases=1 Bus1=118.3 Bus2=119.3 rmatrix=(0.054129633343199646) xmatrix=(0.043232565973157354)
New Line.line_119_120 phases=1 Bus1=119.3 Bus2=120.3 rmatrix=(0.054129633343199646) xmatrix=(0.043232565973157354)
New Line.line_120_121 phases=1 Bus1=120.3 Bus2=121.3 rmatrix=(0.054129633343199646) xmatrix=(0.043232565973157354)
New Line.line_121_122 phases=1 Bus1=121.3 Bus2=122.3 rmatrix=(0.054129633343199646) xmatrix=(0.043232565973157354)
New Line.line_122_123 phases=1 Bus1=122.3 Bus2=123.3 rmatrix=(0.054129633343199646) xmatrix=(0.043232565973157354)
New Line.line_123_124 phases=1 Bus1=123.3 Bus2=124.3 rmatrix=(0.054129633343199646) xmatrix=(0.043232565973157354)
New Line.line_124_125 phases=1 Bus1=124.3 Bus2=125.3 rmatrix=(0.054129633343199646) xmatrix=(0.043232565973157354)
New Line.line_125_126 phases=1 Bus1=125.3 Bus2=126.3 rmatrix=(0.054129633343199646) xmatrix=(0.043232565973157354)
New Line.line_126_127 phases=1 Bus1=126.3 Bus2=127.3 rmatrix=(0.054129633343199646) xmatrix=(0.043232565973157354)
New Line.line_127_128 phases=1 Bus1=127.3 Bus2=128.3 rmatrix=(0.054129633343199646) xmatrix=(0.043232565973157354)
New Line.line_129_130 phases=1 Bus1=129.3 Bus2=130.3 rmatrix=(1.0000000000000002e-06) xmatrix=(1.0000000000000002e-06)
New Line.line_130_131 phases=1 Bus1=130.3 Bus2=131.3 rmatrix=(0.054129633343199646) xmatrix=(0.043232565973157354)
New Line.line_131_132 phases=1 Bus1=131.3 Bus2=132.3 rmatrix=(0.054129633343199646) xmatrix=(0.043232565973157354)
New Line.line_132_133 phases=1 Bus1=132.3 Bus2=133.3 rmatrix=(0.054129633343199646) xmatrix=(0.043232565973157354)
New Line.line_133_134 phases=1 Bus1=133.3 Bus2=134.3 rmatrix=(0.054129633343199646) xmatrix=(0.043232565973157354)
New Line.line_134_135 phases=1 Bus1=134.3 Bus2=135.3 rmatrix=(0.054129633343199646) xmatrix=(0.043232565973157354)
New Line.line_135_136 phases=1 Bus1=135.3 Bus2=136.3 rmatrix=(0.054129633343199646) xmatrix=(0.043232565973157354)
New Line.line_136_137 phases=1 Bus1=136.3 Bus2=137.3 rmatrix=(0.054129633343199646) xmatrix=(0.043232565973157354)
New Line.line_137_138 phases=1 Bus1=137.3 Bus2=138.3 rmatrix=(0.054129633343199646) xmatrix=(0.043232565973157354)
New Line.line_138_139 phases=1 Bus1=138.3 Bus2=139.3 rmatrix=(0.054129633343199646) xmatrix=(0.043232565973157354)
New Line.line_139_140 phases=1 Bus1=139.3 Bus2=140.3 rmatrix=(0.054129633343199646) xmatrix=(0.043232565973157354)
New Line.line_140_141 phases=1 Bus1=140.3 Bus2=141.3 rmatrix=(0.054129633343199646) xmatrix=(0.043232565973157354)
New Line.line_141_142 phases=1 Bus1=141.3 Bus2=142.3 rmatrix=(0.054129633343199646) xmatrix=(0.043232565973157354)
New Line.line_142_143 phases=1 Bus1=142.3 Bus2=143.3 rmatrix=(0.054129633343199646) xmatrix=(0.043232565973157354)
New Line.line_143_144 phases=1 Bus1=143.3 Bus2=144.3 rmatrix=(0.054129633343199646) xmatrix=(0.043232565973157354)
New Line.line_145_146 phases=1 Bus1=145.1 Bus2=146.1 rmatrix=(1.0000000000000002e-06) xmatrix=(1.0000000000000002e-06)
New Line.line_146_147 phases=1 Bus1=146.1 Bus2=147.1 rmatrix=(0.054129633343199646) xmatrix=(0.043232565973157354)
New Line.line_147_148 phases=1 Bus1=147.1 Bus2=148.1 rmatrix=(0.054129633343199646) xmatrix=(0.043232565973157354)
New Line.line_148_149 phases=1 Bus1=148.1 Bus2=149.1 rmatrix=(0.054129633343199646) xmatrix=(0.043232565973157354)
New Line.line_149_150 phases=1 Bus1=149.1 Bus2=150.1 rmatrix=(0.054129633343199646) xmatrix=(0.043232565973157354)
New Line.line_150_151 phases=1 Bus1=150.1 Bus2=151.1 rmatrix=(0.054129633343199646) xmatrix=(0.043232565973157354)
New Line.line_151_152 phases=1 Bus1=151.1 Bus2=152.1 rmatrix=(0.054129633343199646) xmatrix=(0.043232565973157354)
New Line.line_152_153 phases=1 Bus1=152.1 Bus2=153.1 rmatrix=(0.054129633343199646) xmatrix=(0.043232565973157354)
New Line.line_153_154 phases=1 Bus1=153.1 Bus2=154.1 rmatrix=(0.054129633343199646) xmatrix=(0.043232565973157354)
New Line.line_154_155 phases=1 Bus1=154.1 Bus2=155.1 rmatrix=(0.054129633343199646) xmatrix=(0.043232565973157354)
New Line.line_155_156 phases=1 Bus1=155.1 Bus2=156.1 rmatrix=(0.054129633343199646) xmatrix=(0.043232565973157354)
New Line.line_156_157 phases=1 Bus1=156.1 Bus2=157.1 rmatrix=(0.054129633343199646) xmatrix=(0.043232565973157354)
New Line.line_157_158 phases=1 Bus1=157.1 Bus2=158.1 rmatrix=(0.054129633343199646) xmatrix=(0.043232565973157354)
New Line.line_158_159 phases=1 Bus1=158.1 Bus2=159.1 rmatrix=(0.054129633343199646) xmatrix=(0.043232565973157354)
New Line.line_159_160 phases=1 Bus1=159.1 Bus2=160.1 rmatrix=(0.054129633343199646) xmatrix=(0.043232565973157354)
New Line.line_161_162 phases=3 Bus1=161.1.2.3 Bus2=162.1.2.3 rmatrix=(0.02321423628945252 | 0.009452773672451224 0.02275127382230181 | 0.009761157399410244 0.009521207864439237 0.023358584289893364) xmatrix=(0.059834696400317466 | 0.02867272282652517 0.06093127695158634 | 0.026502860299412987 0.030112677954176603 0.05949484670066084)
New Line.line_162_163 phases=3 Bus1=162.1.2.3 Bus2=163.1.2.3 rmatrix=(0.013756883998902089 | 0.005601765625985573 0.013482529896653307 | 0.005784515517302347 0.0056423201042353835 0.013842425417225352) xmatrix=(0.035458369908234595 | 0.01699161311786657 0.03610820956916924 | 0.015705740659822328 0.017844938439782368 0.03525697310857543)
New Line.line_162_257 phases=1 Bus1=162.1 Bus2=257.1 rmatrix=(0.01137204031769498) xmatrix=(0.009082686375631201)
New Line.line_163_164 phases=3 Bus1=163.1.2.3 Bus2=164.1.2.3 rmatrix=(0.018514518061811785 | 0.00753906123426012 0.01814528226817155 | 0.007785012727627847 0.007593640935607418 0.01862964283386789) xmatrix=(0.04772117218993497 | 0.022867934918639303 0.04859575019325289 | 0.021137360694739187 0.02401637137317331 0.04745012500474072)
New Line.line_163_228 phases=1 Bus1=163.1 Bus2=228.1 rmatrix=(0.015230690499954902) xmatrix=(0.00839365814654023)
New Line.line_164_165 phases=3 Bus1=164.1.2.3 Bus2=165.1.2.3 rmatrix=(0.014351679691949401 | 0.0058439648091776755 0.01406546355478437 | 0.006034616115400097 0.005886272709858637 0.014440919598041377) xmatrix=(0.03699145586764112 | 0.017726266277787367 0.037669392140536224 | 0.01638479755245685 0.01861648616290818 0.03678135143120398)
New Line.line_165_166 phases=3 Bus1=165.1.2.3 Bus2=166.1.2.3 rmatrix=(0.01245350471606928 | 0.005071033138545999 0.012205143960363948 | 0.0052364686131460714 0.005107745331962002 0.012530941616506249) xmatrix=(0.032098909673999136 | 0.015381763349458545 0.032687181064731646 | 0.014217719317262931 0.016154241399113336 0.03191659396976586)
New Line.line_165_225 phases=1 Bus1=165.1 Bus2=225.1 rmatrix=(0.015454807228796635) xmatrix=(0.012343534065438548)
New Line.line_166_167 phases=1 Bus1=166.3 Bus2=167.3 rmatrix=(0.1020863022971958) xmatrix=(0.05697023555519495)
New Line.line_166_168 phases=3 Bus1=166.1.2.3 Bus2=168.1.2.3 rmatrix=(0.01532740819949171 | 0.00624127879498146 0.015021733068655077 | 0.006444891922989304 0.006286463085445624 0.015422715264429636) xmatrix=(0.03950639619521224 | 0.0189314230058353 0.04023042336213199 | 0.017498751765862824 0.01988216632365248 0.03928200737586135)
New Line.line_168_169 phases=1 Bus1=168.2 Bus2=169.2 rmatrix=(0.18181157297159692) xmatrix=(0.101461683945597)
New Line.line_168_170 phases=3 Bus1=168.1.2.3 Bus2=170.1.2.3 rmatrix=(0.00973664509310538 | 0.003964735313561 0.009542466780370051 | 0.004094079344718 0.003993438365917 0.009797188340472829) xmatrix=(0.02509620371911355 | 0.012026074109609354 0.025556137679918194 | 0.011115978207077899 0.012630028159747026 0.024953662053327712)
New Line.line_168_224 phases=1 Bus1=168.2 Bus2=224.2 rmatrix=(0.049158466020095014) xmatrix=(0.0269838703656465)
New Line.line_170_171 phases=1 Bus1=170.1 Bus2=171.1 rmatrix=(0.10235426952419645) xmatrix=(0.08174889494970886)
New Line.line_170_172 phases=3 Bus1=170.1.2.3 Bus2=172.1.2.3 rmatrix=(0.009225910905083679 | 0.0037567657458359997 0.00904191818522226 | 0.0038793250561680007 0.0037839631840920008 0.009283278365926012) xmatrix=(0.02377978629746298 | 0.011395248282357343 0.024215594494643455 | 0.010532891317354404 0.011967522017719676 0.02364472163235247)
New Line.line_172_173 phases=1 Bus1=172.2 Bus2=173.2 rmatrix=(0.007920863806439537) xmatrix=(0.00442031366304)
New Line.line_173_174 phases=1 Bus1=173.2 Bus2=174.2 rmatrix=(1.0000000000000002e-06) xmatrix=(1.0000000000000002e-06)
New Line.line_174_175 phases=1 Bus1=174.2 Bus2=175.2 rmatrix=(0.07230237036827943) xmatrix=(0.04034902801247825)
New Line.line_175_176 phases=1 Bus1=175.2 Bus2=176.2 rmatrix=(0.06254262736331914) xmatrix=(0.03446734300559455)
New Line.line_175_177 phases=1 Bus1=175.2 Bus2=177.2 rmatrix=(0.4260978276905984) xmatrix=(0.2377879604495971)
New Line.line_175_181 phases=1 Bus1=175.2 Bus2=181.2 rmatrix=(0.17538491450219507) xmatrix=(0.09787522583519695)
New Line.line_177_178 phases=1 Bus1=177.2 Bus2=178.2 rmatrix=(0.06819316501997803) xmatrix=(0.03805584673967971)
New Line.line_178_179 phases=1 Bus1=178.2 Bus2=179.2 rmatrix=(0.12124172151857683) xmatrix=(0.06766010011727609)
New Line.line_178_180 phases=1 Bus1=178.2 Bus2=180.2 rmatrix=(0.09912039013169993) xmatrix=(0.07916604161133053)
New Line.line_181_182 phases=1 Bus1=181.2 Bus2=182.2 rmatrix=(0.08442012007259743) xmatrix=(0.04652406459058081)
New Line.line_182_183 phases=1 Bus1=182.2 Bus2=183.2 rmatrix=(0.0931075725153569) xmatrix=(0.05195956968575496)
New Line.line_183_184 phases=1 Bus1=183.2 Bus2=184.2 rmatrix=(0.19721099273459983) xmatrix=(0.11005547715359591)
New Line.line_183_223 phases=1 Bus1=183.2 Bus2=223.2 rmatrix=(0.07134631018945595) xmatrix=(0.03916313386248932)
New Line.line_184_185 phases=1 Bus1=184.2 Bus2=185.2 rmatrix=(0.12300768398177973) xmatrix=(0.06864561232847748)
New Line.line_184_222 phases=1 Bus1=184.2 Bus2=222.2 rmatrix=(0.10988223243453514) xmatrix=(0.06031611959350486)
New Line.line_185_186 phases=1 Bus1=185.2 Bus2=186.2 rmatrix=(0.1281810084859168) xmatrix=(0.07153263545471578)
New Line.line_186_187 phases=1 Bus1=186.2 Bus2=187.2 rmatrix=(0.12203160337679951) xmatrix=(0.06810090122879867)
New Line.line_187_188 phases=1 Bus1=187.2 Bus2=188.2 rmatrix=(0.22715203900549888) xmatrix=(0.12627907910134528)
New Line.line_188_189 phases=1 Bus1=188.2 Bus2=189.2 rmatrix=(0.08971005971304975) xmatrix=(0.04987189979138229)
New Line.line_189_190 phases=1 Bus1=189.2 Bus2=190.2 rmatrix=(0.14382420348113514) xmatrix=(0.08026246975823548)
New Line.line_190_191 phases=1 Bus1=190.2 Bus2=191.2 rmatrix=(0.6551874974657973) xmatrix=(0.36563363765279894)
New Line.line_190_221 phases=1 Bus1=190.2 Bus2=221.2 rmatrix=(0.36571760971199635) xmatrix=(0.20409220339199674)
New Line.line_191_192 phases=1 Bus1=191.2 Bus2=192.2 rmatrix=(0.08983070286694889) xmatrix=(0.04993896811461414)
New Line.line_192_193 phases=1 Bus1=192.2 Bus2=193.2 rmatrix=(0.15861141611327548) xmatrix=(0.08851461493247514)
New Line.line_192_219 phases=1 Bus1=192.2 Bus2=219.2 rmatrix=(0.17717309970359646) xmatrix=(0.09887313965759878)
New Line.line_192_220 phases=1 Bus1=192.2 Bus2=220.2 rmatrix=(0.0314298514139981) xmatrix=(0.017539728623997247)
New Line.line_193_194 phases=1 Bus1=193.2 Bus2=194.2 rmatrix=(0.15061780842575873) xmatrix=(0.08405370585215922)
New Line.line_194_195 phases=1 Bus1=194.2 Bus2=195.2 rmatrix=(0.1952095446807959) xmatrix=(0.10758029552217807)
...
