rawData/test/dss_scripts/Loads.dss
New Load.load_23_a phases=1 Bus1=23.1 conn=wye kv=7.199557856794634 kw=8.87 kvar=2.2230315480152 Vminpu = 0.95 Vmaxpu = 1.05
New Load.load_26_c phases=1 Bus1=26.3 conn=wye kv=7.199557856794634 kw=15.26 kvar=3.8245165076339 Vminpu = 0.95 Vmaxpu = 1.05
New Load.load_27_b phases=1 Bus1=27.2 conn=wye kv=7.199557856794634 kw=9.73 kvar=2.4385678649592 Vminpu = 0.95 Vmaxpu = 1.05
New Load.load_28_b phases=1 Bus1=28.2 conn=wye kv=7.199557856794634 kw=5.84 kvar=1.4636419662242 Vminpu = 0.95 Vmaxpu = 1.05
New Load.load_30_c phases=1 Bus1=30.3 conn=wye kv=7.199557856794634 kw=6.1000000000000005 kvar=1.5288041085561 Vminpu = 0.95 Vmaxpu = 1.05
New Load.load_32_c phases=1 Bus1=32.3 conn=wye kv=7.199557856794634 kw=10.1699999999999 kvar=2.5488422596747 Vminpu = 0.95 Vmaxpu = 1.05
New Load.load_33_c phases=1 Bus1=33.3 conn=wye kv=7.199557856794634 kw=6.1000000000000005 kvar=1.5288041085561 Vminpu = 0.95 Vmaxpu = 1.05
New Load.load_34_c phases=1 Bus1=34.3 conn=wye kv=7.199557856794634 kw=6.1000000000000005 kvar=1.5288041085561 Vminpu = 0.95 Vmaxpu = 1.05
New Load.load_47_b phases=1 Bus1=47.2 conn=wye kv=7.199557856794634 kw=10.5237794567986 kvar=5.9641006632988 Vminpu = 0.95 Vmaxpu = 1.05
New Load.load_48_b phases=1 Bus1=48.2 conn=wye kv=7.199557856794634 kw=9.5374611836228 kvar=5.4051283386297 Vminpu = 0.95 Vmaxpu = 1.05
New Load.load_49_b phases=1 Bus1=49.2 conn=wye kv=7.199557856794634 kw=10.2243041232933 kvar=5.7943801705297 Vminpu = 0.95 Vmaxpu = 1.05
New Load.load_50_b phases=1 Bus1=50.2 conn=wye kv=7.199557856794634 kw=9.6724763463165 kvar=5.4816449574625 Vminpu = 0.95 Vmaxpu = 1.05
New Load.load_51_b phases=1 Bus1=51.2 conn=wye kv=7.199557856794634 kw=11.7862416235236 kvar=6.6795709443764 Vminpu = 0.95 Vmaxpu = 1.05
New Load.load_52_b phases=1 Bus1=52.2 conn=wye kv=7.199557856794634 kw=9.8950576929094 kvar=5.6077876196403 Vminpu = 0.95 Vmaxpu = 1.05
New Load.load_53_b phases=1 Bus1=53.2 conn=wye kv=7.199557856794634 kw=12.2207086233725 kvar=6.925794739983 Vminpu = 0.95 Vmaxpu = 1.05
New Load.load_54_b phases=1 Bus1=54.2 conn=wye kv=7.199557856794634 kw=8.7143553221524 kvar=4.9386527502241 Vminpu = 0.95 Vmaxpu = 1.05
New Load.load_55_b phases=1 Bus1=55.2 conn=wye kv=7.199557856794634 kw=10.4520069187722 kvar=5.923425291545899 Vminpu = 0.95 Vmaxpu = 1.05
New Load.load_56_b phases=1 Bus1=56.2 conn=wye kv=7.199557856794634 kw=7.041045313322701 kvar=3.9903442670851006 Vminpu = 0.95 Vmaxpu = 1.05
New Load.load_57_b phases=1 Bus1=57.2 conn=wye kv=7.199557856794634 kw=11.1992687734873 kvar=6.3469181005372 Vminpu = 0.95 Vmaxpu = 1.05
New Load.load_58_b phases=1 Bus1=58.2 conn=wye kv=7.199557856794634 kw=12.7790805918027 kvar=7.2422387172587 Vminpu = 0.95 Vmaxpu = 1.05
New Load.load_59_b phases=1 Bus1=59.2 conn=wye kv=7.199557856794634 kw=9.0483894473721 kvar=5.1279586128151005 Vminpu = 0.95 Vmaxpu = 1.05
New Load.load_60_b phases=1 Bus1=60.2 conn=wye kv=7.199557856794634 kw=11.24667345196 kvar=6.3737835698758 Vminpu = 0.95 Vmaxpu = 1.05
New Load.load_66_b phases=1 Bus1=66.2 conn=wye kv=7.199557856794634 kw=11.24667345196 kvar=6.3737835698758 Vminpu = 0.95 Vmaxpu = 1.05
New Load.load_67_b phases=1 Bus1=67.2 conn=wye kv=7.199557856794634 kw=12.5626026850694 kvar=7.1195550338502995 Vminpu = 0.95 Vmaxpu = 1.05
New Load.load_68_b phases=1 Bus1=68.2 conn=wye kv=7.199557856794634 kw=9.7095276922213 kvar=5.5026429228412 Vminpu = 0.95 Vmaxpu = 1.05
New Load.load_69_b phases=1 Bus1=69.2 conn=wye kv=7.199557856794634 kw=11.0803261365052 kvar=6.2795102017845 Vminpu = 0.95 Vmaxpu = 1.05
New Load.load_70_b phases=1 Bus1=70.2 conn=wye kv=7.199557856794634 kw=9.757945402375102 kvar=5.5300825036904 Vminpu = 0.95 Vmaxpu = 1.05
New Load.load_71_b phases=1 Bus1=71.2 conn=wye kv=7.199557856794634 kw=9.3688844239196 kvar=5.3095914862574 Vminpu = 0.95 Vmaxpu = 1.05
New Load.load_72_b phases=1 Bus1=72.2 conn=wye kv=7.199557856794634 kw=12.718338301046101 kvar=7.2078144747061 Vminpu = 0.95 Vmaxpu = 1.05
New Load.load_73_b phases=1 Bus1=73.2 conn=wye kv=7.199557856794634 kw=13.970641351041301 kvar=7.9175273190115005 Vminpu = 0.95 Vmaxpu = 1.05
New Load.load_74_b phases=1 Bus1=74.2 conn=wye kv=7.199557856794634 kw=16.8992144678854 kvar=9.5772261886419 Vminpu = 0.95 Vmaxpu = 1.05
New Load.load_75_b phases=1 Bus1=75.2 conn=wye kv=7.199557856794634 kw=7.4746989858306 kvar=4.2361071288463 Vminpu = 0.95 Vmaxpu = 1.05
New Load.load_76_b phases=1 Bus1=76.2 conn=wye kv=7.199557856794634 kw=13.7594270904196 kvar=7.7978266813229995 Vminpu = 0.95 Vmaxpu = 1.05
New Load.load_77_b phases=1 Bus1=77.2 conn=wye kv=7.199557856794634 kw=17.565174663524402 kvar=9.9546432241134 Vminpu = 0.95 Vmaxpu = 1.05
New Load.load_78_b phases=1 Bus1=78.2 conn=wye kv=7.199557856794634 kw=28.3268202952669 kvar=16.053548861004 Vminpu = 0.95 Vmaxpu = 1.05
New Load.load_79_b phases=1 Bus1=79.2 conn=wye kv=7.199557856794634 kw=24.2153381560265 kvar=13.7234645548431 Vminpu = 0.95 Vmaxpu = 1.05
New Load.load_85_a phases=1 Bus1=85.1 conn=wye kv=7.199557856794634 kw=8.819447135798 kvar=4.9982110256558006 Vminpu = 0.95 Vmaxpu = 1.05
New Load.load_86_a phases=1 Bus1=86.1 conn=wye kv=7.199557856794634 kw=12.9177671657048 kvar=7.3208360207081 Vminpu = 0.95 Vmaxpu = 1.05
New Load.load_87_a phases=1 Bus1=87.1 conn=wye kv=7.199557856794634 kw=9.6255849268242 kvar=5.4550703653927 Vminpu = 0.95 Vmaxpu = 1.05
New Load.load_88_a phases=1 Bus1=88.1 conn=wye kv=7.199557856794634 kw=10.855762039354302 kvar=6.152243863082799 Vminpu = 0.95 Vmaxpu = 1.05
New Load.load_89_a phases=1 Bus1=89.1 conn=wye kv=7.199557856794634 kw=9.4727999704801 kvar=5.368483140412 Vminpu = 0.95 Vmaxpu = 1.05
New Load.load_90_a phases=1 Bus1=90.1 conn=wye kv=7.199557856794634 kw=13.9812503991171 kvar=7.9235397436281 Vminpu = 0.95 Vmaxpu = 1.05
New Load.load_91_a phases=1 Bus1=91.1 conn=wye kv=7.199557856794634 kw=14.6413425887601 kvar=8.2976312268494 Vminpu = 0.95 Vmaxpu = 1.05
New Load.load_92_a phases=1 Bus1=92.1 conn=wye kv=7.199557856794634 kw=8.24667345196 kvar=4.673605220134999 Vminpu = 0.95 Vmaxpu = 1.05
New Load.load_93_a phases=1 Bus1=93.1 conn=wye kv=7.199557856794634 kw=18.1481957401076 kvar=10.2850564947299 Vminpu = 0.95 Vmaxpu = 1.05
New Load.load_94_a phases=1 Bus1=94.1 conn=wye kv=7.199557856794634 kw=16.043381677140598 kvar=9.0922033947011 Vminpu = 0.95 Vmaxpu = 1.05
New Load.load_95_a phases=1 Bus1=95.1 conn=wye kv=7.199557856794634 kw=14.5376926851182 kvar=8.238890119474501 Vminpu = 0.95 Vmaxpu = 1.05
New Load.load_96_a phases=1 Bus1=96.1 conn=wye kv=7.199557856794634 kw=22.371827717226097 kvar=12.6786990429865 Vminpu = 0.95 Vmaxpu = 1.05
New Load.load_97_a phases=1 Bus1=97.1 conn=wye kv=7.199557856794634 kw=21.443673718624797 kvar=12.152689931770801 Vminpu = 0.95 Vmaxpu = 1.05
New Load.load_98_a phases=1 Bus1=98.1 conn=wye kv=7.199557856794634 kw=19.9304270322509 kvar=11.2950935137741 Vminpu = 0.95 Vmaxpu = 1.05
New Load.load_99_c phases=1 Bus1=99.3 conn=wye kv=7.199557856794634 kw=40.5200212823318 kvar=22.963754305086102 Vminpu = 0.95 Vmaxpu = 1.05
New Load.load_115_c phases=1 Bus1=115.3 conn=wye kv=7.199557856794634 kw=12.4241822443331 kvar=7.0411085550165 Vminpu = 0.95 Vmaxpu = 1.05
New Load.load_116_c phases=1 Bus1=116.3 conn=wye kv=7.199557856794634 kw=16.0242114181283 kvar=9.0813391082572 Vminpu = 0.95 Vmaxpu = 1.05
New Load.load_117_c phases=1 Bus1=117.3 conn=wye kv=7.199557856794634 kw=12.9454997161501 kvar=7.3365527813248 Vminpu = 0.95 Vmaxpu = 1.05
New Load.load_118_c phases=1 Bus1=118.3 conn=wye kv=7.199557856794634 kw=8.5632104537323 kvar=4.8529950059033 Vminpu = 0.95 Vmaxpu = 1.05
New Load.load_119_c phases=1 Bus1=119.3 conn=wye kv=7.199557856794634 kw=10.5313835782727 kvar=5.9684101175318 Vminpu = 0.95 Vmaxpu = 1.05
New Load.load_120_c phases=1 Bus1=120.3 conn=wye kv=7.199557856794634 kw=8.846448119591 kvar=5.0135131883446995 Vminpu = 0.95 Vmaxpu = 1.05
New Load.load_121_c phases=1 Bus1=121.3 conn=wye kv=7.199557856794634 kw=11.883396841347901 kvar=6.7346313436794 Vminpu = 0.95 Vmaxpu = 1.05
New Load.load_122_c phases=1 Bus1=122.3 conn=wye kv=7.199557856794634 kw=13.9303671827756 kvar=7.8947028960317 Vminpu = 0.95 Vmaxpu = 1.05
New Load.load_123_c phases=1 Bus1=123.3 conn=wye kv=7.199557856794634 kw=13.438147774135999 kvar=7.615749302068 Vminpu = 0.95 Vmaxpu = 1.05
New Load.load_124_c phases=1 Bus1=124.3 conn=wye kv=7.199557856794634 kw=23.4163207713385 kvar=13.2706405353388 Vminpu = 0.95 Vmaxpu = 1.05
New Load.load_125_c phases=1 Bus1=125.3 conn=wye kv=7.199557856794634 kw=17.8801252187183 kvar=10.1331339291733 Vminpu = 0.95 Vmaxpu = 1.05
New Load.load_126_c phases=1 Bus1=126.3 conn=wye kv=7.199557856794634 kw=18.079441881378802 kvar=10.2460918873726 Vminpu = 0.95 Vmaxpu = 1.05
New Load.load_127_c phases=1 Bus1=127.3 conn=wye kv=7.199557856794634 kw=16.8796502872312 kvar=9.5661386565157 Vminpu = 0.95 Vmaxpu = 1.05
New Load.load_128_c phases=1 Bus1=128.3 conn=wye kv=7.199557856794634 kw=21.3848170655772 kvar=12.119334329354201 Vminpu = 0.95 Vmaxpu = 1.05
New Load.load_131_c phases=1 Bus1=131.3 conn=wye kv=7.199557856794634 kw=11.24667345196 kvar=6.3737835698758 Vminpu = 0.95 Vmaxpu = 1.05
New Load.load_132_c phases=1 Bus1=132.3 conn=wye kv=7.199557856794634 kw=12.5626026850694 kvar=7.1195550338502995 Vminpu = 0.95 Vmaxpu = 1.05
New Load.load_133_c phases=1 Bus1=133.3 conn=wye kv=7.199557856794634 kw=9.7095276922213 kvar=5.5026429228412 Vminpu = 0.95 Vmaxpu = 1.05
New Load.load_134_c phases=1 Bus1=134.3 conn=wye kv=7.199557856794634 kw=11.24667345196 kvar=6.3737835698758 Vminpu = 0.95 Vmaxpu = 1.05
New Load.load_135_c phases=1 Bus1=135.3 conn=wye kv=7.199557856794634 kw=11.24667345196 kvar=6.3737835698758 Vminpu = 0.95 Vmaxpu = 1.05
New Load.load_136_c phases=1 Bus1=136.3 conn=wye kv=7.199557856794634 kw=11.24667345196 kvar=6.3737835698758 Vminpu = 0.95 Vmaxpu = 1.05
New Load.load_137_c phases=1 Bus1=137.3 conn=wye kv=7.199557856794634 kw=11.24667345196 kvar=6.3737835698758 Vminpu = 0.95 Vmaxpu = 1.05
New Load.load_138_c phases=1 Bus1=138.3 conn=wye kv=7.199557856794634 kw=11.24667345196 kvar=6.3737835698758 Vminpu = 0.95 Vmaxpu = 1.05
New Load.load_139_c phases=1 Bus1=139.3 conn=wye kv=7.199557856794634 kw=11.24667345196 kvar=6.3737835698758 Vminpu = 0.95 Vmaxpu = 1.05
New Load.load_140_c phases=1 Bus1=140.3 conn=wye kv=7.199557856794634 kw=11.24667345196 kvar=6.3737835698758 Vminpu = 0.95 Vmaxpu = 1.05
New Load.load_141_c phases=1 Bus1=141.3 conn=wye kv=7.199557856794634 kw=11.24667345196 kvar=6.3737835698758 Vminpu = 0.95 Vmaxpu = 1.05
New Load.load_142_c phases=1 Bus1=142.3 conn=wye kv=7.199557856794634 kw=11.24667345196 kvar=6.3737835698758 Vminpu = 0.95 Vmaxpu = 1.05
New Load.load_143_c phases=1 Bus1=143.3 conn=wye kv=7.199557856794634 kw=11.24667345196 kvar=6.3737835698758 Vminpu = 0.95 Vmaxpu = 1.05
New Load.load_144_c phases=1 Bus1=144.3 conn=wye kv=7.199557856794634 kw=11.24667345196 kvar=6.3737835698758 Vminpu = 0.95 Vmaxpu = 1.05
New Load.load_147_a phases=1 Bus1=147.1 conn=wye kv=7.199557856794634 kw=11.24667345196 kvar=6.3737835698758 Vminpu = 0.95 Vmaxpu = 1.05
New Load.load_148_a phases=1 Bus1=148.1 conn=wye kv=7.199557856794634 kw=12.5626026850694 kvar=7.1195550338502995 Vminpu = 0.95 Vmaxpu = 1.05
New Load.load_149_a phases=1 Bus1=149.1 conn=wye kv=7.199557856794634 kw=9.7095276922213 kvar=5.5026429228412 Vminpu = 0.95 Vmaxpu = 1.05
New Load.load_150_a phases=1 Bus1=150.1 conn=wye kv=7.199557856794634 kw=14.926806934104 kvar=8.459411326708299 Vminpu = 0.95 Vmaxpu = 1.05
New Load.load_151_a phases=1 Bus1=151.1 conn=wye kv=7.199557856794634 kw=12.5976728529195 kvar=7.1394302138838 Vminpu = 0.95 Vmaxpu = 1.05
New Load.load_152_a phases=1 Bus1=152.1 conn=wye kv=7.199557856794634 kw=11.9178092940916 kvar=6.7541337793849 Vminpu = 0.95 Vmaxpu = 1.05
New Load.load_153_a phases=1 Bus1=153.1 conn=wye kv=7.199557856794634 kw=12.4405381230605 kvar=7.050377858651 Vminpu = 0.95 Vmaxpu = 1.05
New Load.load_154_a phases=1 Bus1=154.1 conn=wye kv=7.199557856794634 kw=12.981179962791 kvar=7.3567737089422 Vminpu = 0.95 Vmaxpu = 1.05
New Load.load_155_a phases=1 Bus1=155.1 conn=wye kv=7.199557856794634 kw=14.491726637241701 kvar=8.212839959667 Vminpu = 0.95 Vmaxpu = 1.05
New Load.load_156_a phases=1 Bus1=156.1 conn=wye kv=7.199557856794634 kw=9.9815271184828 kvar=5.6567921013984 Vminpu = 0.95 Vmaxpu = 1.05
New Load.load_157_a phases=1 Bus1=157.1 conn=wye kv=7.199557856794634 kw=19.6171817615062 kvar=11.1175692379479 Vminpu = 0.95 Vmaxpu = 1.05
New Load.load_158_a phases=1 Bus1=158.1 conn=wye kv=7.199557856794634 kw=10.6325346633193 kvar=6.025735079148101 Vminpu = 0.95 Vmaxpu = 1.05
New Load.load_159_a phases=1 Bus1=159.1 conn=wye kv=7.199557856794634 kw=10.5879375932416 kvar=6.0004607548121 Vminpu = 0.95 Vmaxpu = 1.05
New Load.load_160_a phases=1 Bus1=160.1 conn=wye kv=7.199557856794634 kw=10.7735833757842 kvar=6.105671068212001 Vminpu = 0.95 Vmaxpu = 1.05
New Load.load_161_b phases=1 Bus1=161.2 conn=wye kv=7.199557856794634 kw=9.73 kvar=2.4385678649592 Vminpu = 0.95 Vmaxpu = 1.05
New Load.load_164_b phases=1 Bus1=164.2 conn=wye kv=7.199557856794634 kw=5.84 kvar=1.4636419662242 Vminpu = 0.95 Vmaxpu = 1.05
New Load.load_167_c phases=1 Bus1=167.3 conn=wye kv=7.199557856794634 kw=6.1000000000000005 kvar=1.5288041085561 Vminpu = 0.95 Vmaxpu = 1.05
New Load.load_169_b phases=1 Bus1=169.2 conn=wye kv=7.199557856794634 kw=5.84 kvar=1.4636419662242 Vminpu = 0.95 Vmaxpu = 1.05
New Load.load_171_a phases=1 Bus1=171.1 conn=wye kv=7.199557856794634 kw=5.32 kvar=1.3333176815604 Vminpu = 0.95 Vmaxpu = 1.05
New Load.load_176_b phases=1 Bus1=176.2 conn=wye kv=7.199557856794634 kw=9.73 kvar=2.4385678649592 Vminpu = 0.95 Vmaxpu = 1.05
New Load.load_177_b phases=1 Bus1=177.2 conn=wye kv=7.199557856794634 kw=12.73 kvar=3.1904387380196 Vminpu = 0.95 Vmaxpu = 1.05
New Load.load_179_b phases=1 Bus1=179.2 conn=wye kv=7.199557856794634 kw=8.84 kvar=2.2155128392846 Vminpu = 0.95 Vmaxpu = 1.05
New Load.load_180_b phases=1 Bus1=180.2 conn=wye kv=7.199557856794634 kw=9.729999999999901 kvar=2.4385678649592 Vminpu = 0.95 Vmaxpu = 1.05
New Load.load_181_b phases=1 Bus1=181.2 conn=wye kv=7.199557856794634 kw=5.84 kvar=1.4636419662242 Vminpu = 0.95 Vmaxpu = 1.05
New Load.load_185_b phases=1 Bus1=185.2 conn=wye kv=7.199557856794634 kw=9.73 kvar=2.4385678649592 Vminpu = 0.95 Vmaxpu = 1.05
New Load.load_186_b phases=1 Bus1=186.2 conn=wye kv=7.199557856794634 kw=9.729999999999901 kvar=2.4385678649592 Vminpu = 0.95 Vmaxpu = 1.05
New Load.load_189_b phases=1 Bus1=189.2 conn=wye kv=7.199557856794634 kw=3.8899999999999997 kvar=0.9749258987349001 Vminpu = 0.95 Vmaxpu = 1.05
New Load.load_191_b phases=1 Bus1=191.2 conn=wye kv=7.199557856794634 kw=12.73 kvar=3.1904387380196 Vminpu = 0.95 Vmaxpu = 1.05
New Load.load_193_b phases=1 Bus1=193.2 conn=wye kv=7.199557856794634 kw=9.73 kvar=2.4385678649592 Vminpu = 0.95 Vmaxpu = 1.05
New Load.load_195_b phases=1 Bus1=195.2 conn=wye kv=7.199557856794634 kw=9.73 kvar=2.4385678649592 Vminpu = 0.95 Vmaxpu = 1.05
New Load.load_197_b phases=1 Bus1=197.2 conn=wye kv=7.199557856794634 kw=12.73 kvar=3.1904387380196 Vminpu = 0.95 Vmaxpu = 1.05
New Load.load_199_b phases=1 Bus1=199.2 conn=wye kv=7.199557856794634 kw=9.729999999999901 kvar=2.4385678649592 Vminpu = 0.95 Vmaxpu = 1.05
New Load.load_200_b phases=1 Bus1=200.2 conn=wye kv=7.199557856794634 kw=3.8899999999999997 kvar=0.9749258987349001 Vminpu = 0.95 Vmaxpu = 1.05
New Load.load_202_b phases=1 Bus1=202.2 conn=wye kv=7.199557856794634 kw=9.73 kvar=2.4385678649592 Vminpu = 0.95 Vmaxpu = 1.05
New Load.load_203_b phases=1 Bus1=203.2 conn=wye kv=7.199557856794634 kw=14.59 kvar=3.6565986793171 Vminpu = 0.95 Vmaxpu = 1.05
New Load.load_204_b phases=1 Bus1=204.2 conn=wye kv=7.199557856794634 kw=12.7299999999999 kvar=3.1904387380196 Vminpu = 0.95 Vmaxpu = 1.05
New Load.load_207_b phases=1 Bus1=207.2 conn=wye kv=7.199557856794634 kw=9.73 kvar=2.4385678649592 Vminpu = 0.95 Vmaxpu = 1.05
New Load.load_208_b phases=1 Bus1=208.2 conn=wye kv=7.199557856794634 kw=5.84 kvar=1.4636419662242 Vminpu = 0.95 Vmaxpu = 1.05
New Load.load_211_b phases=1 Bus1=211.2 conn=wye kv=7.199557856794634 kw=9.73 kvar=2.4385678649592 Vminpu = 0.95 Vmaxpu = 1.05
New Load.load_212_b phases=1 Bus1=212.2 conn=wye kv=7.199557856794634 kw=6.889999999999899 kvar=1.7267967717953001 Vminpu = 0.95 Vmaxpu = 1.05
New Load.load_213_b phases=1 Bus1=213.2 conn=wye kv=7.199557856794634 kw=12.7299999999999 kvar=3.1904387380196 Vminpu = 0.95 Vmaxpu = 1.05
New Load.load_215_b phases=1 Bus1=215.2 conn=wye kv=7.199557856794634 kw=9.73 kvar=2.4385678649592 Vminpu = 0.95 Vmaxpu = 1.05
New Load.load_217_b phases=1 Bus1=217.2 conn=wye kv=7.199557856794634 kw=6.890000000000001 kvar=1.7267967717954 Vminpu = 0.95 Vmaxpu = 1.05
New Load.load_218_b phases=1 Bus1=218.2 conn=wye kv=7.199557856794634 kw=9.73 kvar=2.4385678649592 Vminpu = 0.95 Vmaxpu = 1.05
New Load.load_219_b phases=1 Bus1=219.2 conn=wye kv=7.199557856794634 kw=12.73 kvar=3.1904387380196 Vminpu = 0.95 Vmaxpu = 1.05
New Load.load_220_b phases=1 Bus1=220.2 conn=wye kv=7.199557856794634 kw=9.73 kvar=2.4385678649592 Vminpu = 0.95 Vmaxpu = 1.05
New Load.load_221_b phases=1 Bus1=221.2 conn=wye kv=7.199557856794634 kw=9.729999999999901 kvar=2.4385678649592 Vminpu = 0.95 Vmaxpu = 1.05
New Load.load_222_b phases=1 Bus1=222.2 conn=wye kv=7.199557856794634 kw=5.84 kvar=1.4636419662242 Vminpu = 0.95 Vmaxpu = 1.05
New Load.load_223_b phases=1 Bus1=223.2 conn=wye kv=7.199557856794634 kw=6.890000000000001 kvar=1.7267967717953001 Vminpu = 0.95 Vmaxpu = 1.05
New Load.load_224_b phases=1 Bus1=224.2 conn=wye kv=7.199557856794634 kw=5.84 kvar=1.4636419662242 Vminpu = 0.95 Vmaxpu = 1.05
New Load.load_227_a phases=1 Bus1=227.1 conn=wye kv=7.199557856794634 kw=8.87 kvar=2.2230315480152 Vminpu = 0.95 Vmaxpu = 1.05
New Load.load_231_a phases=1 Bus1=231.1 conn=wye kv=7.199557856794634 kw=5.32 kvar=1.3333176815604 Vminpu = 0.95 Vmaxpu = 1.05
New Load.load_233_a phases=1 Bus1=233.1 conn=wye kv=7.199557856794634 kw=13.299999999999999 kvar=3.3332942039011 Vminpu = 0.95 Vmaxpu = 1.05
New Load.load_234_a phases=1 Bus1=234.1 conn=wye kv=7.199557856794634 kw=5.32 kvar=1.3333176815604 Vminpu = 0.95 Vmaxpu = 1.05
New Load.load_236_a phases=1 Bus1=236.1 conn=wye kv=7.199557856794634 kw=8.87 kvar=2.2230315480152 Vminpu = 0.95 Vmaxpu = 1.05
New Load.load_238_a phases=1 Bus1=238.1 conn=wye kv=7.199557856794634 kw=13.299999999999999 kvar=3.3332942039011 Vminpu = 0.95 Vmaxpu = 1.05
New Load.load_240_a phases=1 Bus1=240.1 conn=wye kv=7.199557856794634 kw=3.5500000000000003 kvar=0.8897138664548 Vminpu = 0.95 Vmaxpu = 1.05
New Load.load_242_a phases=1 Bus1=242.1 conn=wye kv=7.199557856794634 kw=6.550000000000001 kvar=1.6415847395152 Vminpu = 0.95 Vmaxpu = 1.05
New Load.load_244_a phases=1 Bus1=244.1 conn=wye kv=7.199557856794634 kw=5.32 kvar=1.3333176815604 Vminpu = 0.95 Vmaxpu = 1.05
New Load.load_245_a phases=1 Bus1=245.1 conn=wye kv=7.199557856794634 kw=13.299999999999999 kvar=3.3332942039011 Vminpu = 0.95 Vmaxpu = 1.05
New Load.load_248_a phases=1 Bus1=248.1 conn=wye kv=7.199557856794634 kw=11.870000000000001 kvar=2.9749024210756 Vminpu = 0.95 Vmaxpu = 1.05
New Load.load_249_a phases=1 Bus1=249.1 conn=wye kv=7.199557856794634 kw=8.87 kvar=2.2230315480152 Vminpu = 0.95 Vmaxpu = 1.05
New Load.load_250_a phases=1 Bus1=250.1 conn=wye kv=7.199557856794634 kw=8.87 kvar=2.2230315480152 Vminpu = 0.95 Vmaxpu = 1.05
New Load.load_251_a phases=1 Bus1=251.1 conn=wye kv=7.199557856794634 kw=11.870000000000001 kvar=2.9749024210756 Vminpu = 0.95 Vmaxpu = 1.05
New Load.load_252_a phases=1 Bus1=252.1 conn=wye kv=7.199557856794634 kw=8.319999999999999 kvar=2.0851885546208 Vminpu = 0.95 Vmaxpu = 1.05
New Load.load_253_a phases=1 Bus1=253.1 conn=wye kv=7.199557856794634 kw=5.32 kvar=1.3333176815604 Vminpu = 0.95 Vmaxpu = 1.05
New Load.load_255_a phases=1 Bus1=255.1 conn=wye kv=7.199557856794634 kw=8.3199999999999 kvar=2.0851885546208 Vminpu = 0.95 Vmaxpu = 1.05
New Load.load_256_a phases=1 Bus1=256.1 conn=wye kv=7.199557856794634 kw=8.87 kvar=2.2230315480152 Vminpu = 0.95 Vmaxpu = 1.05
New Load.load_258_a phases=1 Bus1=258.1 conn=wye kv=7.199557856794634 kw=8.87 kvar=2.2230315480152 Vminpu = 0.95 Vmaxpu = 1.05
New Load.load_259_c phases=1 Bus1=259.3 conn=wye kv=7.199557856794634 kw=10.17 kvar=2.5488422596747 Vminpu = 0.95 Vmaxpu = 1.05
New Load.load_260_a phases=1 Bus1=260.1 conn=wye kv=7.199557856794634 kw=8.319999999999999 kvar=2.0851885546208 Vminpu = 0.95 Vmaxpu = 1.05
New Load.load_262_c phases=1 Bus1=262.3 conn=wye kv=7.199557856794634 kw=10.17 kvar=2.5488422596747 Vminpu = 0.95 Vmaxpu = 1.05
New Load.load_263_c phases=1 Bus1=263.3 conn=wye kv=7.199557856794634 kw=10.17 kvar=2.5488422596747 Vminpu = 0.95 Vmaxpu = 1.05
New Load.load_266_c phases=1 Bus1=266.3 conn=wye kv=7.199557856794634 kw=13.1699999999999 kvar=3.3007131327351003 Vminpu = 0.95 Vmaxpu = 1.05
New Load.load_267_c phases=1 Bus1=267.3 conn=wye kv=7.199557856794634 kw=10.17 kvar=2.5488422596747 Vminpu = 0.95 Vmaxpu = 1.05
New Load.load_268_c phases=1 Bus1=268.3 conn=wye kv=7.199557856794634 kw=10.17 kvar=2.5488422596747 Vminpu = 0.95 Vmaxpu = 1.05
New Load.load_269_b phases=1 Bus1=269.2 conn=wye kv=7.199557856794634 kw=9.73 kvar=2.4385678649592 Vminpu = 0.95 Vmaxpu = 1.05
New Load.load_270_c phases=1 Bus1=270.3 conn=wye kv=7.199557856794634 kw=10.1699999999999 kvar=2.5488422596747 Vminpu = 0.95 Vmaxpu = 1.05
New Load.load_276_a phases=1 Bus1=276.1 conn=wye kv=7.199557856794634 kw=6.5499999999998995 kvar=1.6415847395152 Vminpu = 0.95 Vmaxpu = 1.05
New Load.load_276_b phases=1 Bus1=276.2 conn=wye kv=7.199557856794634 kw=6.890000000000001 kvar=1.7267967717954 Vminpu = 0.95 Vmaxpu = 1.05
New Load.load_276_c phases=1 Bus1=276.3 conn=wye kv=7.199557856794634 kw=4.069999999999999 kvar=1.0200381511186 Vminpu = 0.95 Vmaxpu = 1.05
New Load.load_279_b phases=1 Bus1=279.2 conn=wye kv=7.199557856794634 kw=4.95 kvar=1.2405869405496 Vminpu = 0.95 Vmaxpu = 1.05
New Load.load_280_b phases=1 Bus1=280.2 conn=wye kv=7.199557856794634 kw=9.73 kvar=2.4385678649592 Vminpu = 0.95 Vmaxpu = 1.05
New Load.load_286_a phases=1 Bus1=286.1 conn=wye kv=7.199557856794634 kw=8.87 kvar=2.2230315480152 Vminpu = 0.95 Vmaxpu = 1.05
New Load.load_288_a phases=1 Bus1=288.1 conn=wye kv=7.199557856794634 kw=8.319999999999999 kvar=2.0851885546208 Vminpu = 0.95 Vmaxpu = 1.05
New Load.load_291_a phases=1 Bus1=291.1 conn=wye kv=7.199557856794634 kw=6.5499999999998995 kvar=1.6415847395152 Vminpu = 0.95 Vmaxpu = 1.05
New Load.load_291_b phases=1 Bus1=291.2 conn=wye kv=7.199557856794634 kw=14.5899999999999 kvar=3.6565986793171 Vminpu = 0.95 Vmaxpu = 1.05
New Load.load_293_a phases=1 Bus1=293.1 conn=wye kv=7.199557856794634 kw=5.32 kvar=1.3333176815604 Vminpu = 0.95 Vmaxpu = 1.05
New Load.load_296_c phases=1 Bus1=296.3 conn=wye kv=7.199557856794634 kw=10.17 kvar=2.5488422596747 Vminpu = 0.95 Vmaxpu = 1.05
New Load.load_297_a phases=1 Bus1=297.1 conn=wye kv=7.199557856794634 kw=11.870000000000001 kvar=2.9749024210756 Vminpu = 0.95 Vmaxpu = 1.05
New Load.load_298_a phases=1 Bus1=298.1 conn=wye kv=7.199557856794634 kw=8.87 kvar=2.2230315480152 Vminpu = 0.95 Vmaxpu = 1.05
New Load.load_303_b phases=1 Bus1=303.2 conn=wye kv=7.199557856794634 kw=12.73 kvar=3.1904387380196 Vminpu = 0.95 Vmaxpu = 1.05
New Load.load_305_b phases=1 Bus1=305.2 conn=wye kv=7.199557856794634 kw=9.73 kvar=2.4385678649592 Vminpu = 0.95 Vmaxpu = 1.05
New Load.load_307_b phases=1 Bus1=307.2 conn=wye kv=7.199557856794634 kw=5.84 kvar=1.4636419662242 Vminpu = 0.95 Vmaxpu = 1.05
New Load.load_308_b phases=1 Bus1=308.2 conn=wye kv=7.199557856794634 kw=8.8399999999999 kvar=2.2155128392846 Vminpu = 0.95 Vmaxpu = 1.05
New Load.load_309_b phases=1 Bus1=309.2 conn=wye kv=7.199557856794634 kw=3.8899999999999997 kvar=0.9749258987349001 Vminpu = 0.95 Vmaxpu = 1.05
New Load.load_312_b phases=1 Bus1=312.2 conn=wye kv=7.199557856794634 kw=5.84 kvar=1.4636419662242 Vminpu = 0.95 Vmaxpu = 1.05
New Load.load_316_b phases=1 Bus1=316.2 conn=wye kv=7.199557856794634 kw=14.5899999999999 kvar=3.6565986793171 Vminpu = 0.95 Vmaxpu = 1.05
New Load.load_317_b phases=1 Bus1=317.2 conn=wye kv=7.199557856794634 kw=14.5899999999999 kvar=3.6565986793171 Vminpu = 0.95 Vmaxpu = 1.05
New Load.load_318_b phases=1 Bus1=318.2 conn=wye kv=7.199557856794634 kw=9.73 kvar=2.4385678649592 Vminpu = 0.95 Vmaxpu = 1.05
New Load.load_320_b phases=1 Bus1=320.2 conn=wye kv=7.199557856794634 kw=5.84 kvar=1.4636419662242 Vminpu = 0.95 Vmaxpu = 1.05
New Load.load_322_b phases=1 Bus1=322.2 conn=wye kv=7.199557856794634 kw=5.7566042572258995 kvar=1.4427410229145 Vminpu = 0.95 Vmaxpu = 1.05
New Load.load_329_b phases=1 Bus1=329.2 conn=wye kv=7.199557856794634 kw=5.84 kvar=1.4636419662242 Vminpu = 0.95 Vmaxpu = 1.05
New Load.load_330_b phases=1 Bus1=330.2 conn=wye kv=7.199557856794634 kw=3.8899999999999997 kvar=0.9749258987349001 Vminpu = 0.95 Vmaxpu = 1.05
New Load.load_333_b phases=1 Bus1=333.2 conn=wye kv=7.199557856794634 kw=19.4499999999999 kvar=4.8746294936749 Vminpu = 0.95 Vmaxpu = 1.05
New Load.load_337_b phases=1 Bus1=337.2 conn=wye kv=7.199557856794634 kw=14.5899999999999 kvar=3.6565986793171 Vminpu = 0.95 Vmaxpu = 1.05
New Load.load_339_b phases=1 Bus1=339.2 conn=wye kv=7.199557856794634 kw=38.9 kvar=9.7492589873499 Vminpu = 0.95 Vmaxpu = 1.05
New Load.load_343_b phases=1 Bus1=343.2 conn=wye kv=7.199557856794634 kw=5.84 kvar=1.4636419662242 Vminpu = 0.95 Vmaxpu = 1.05
New Load.load_348_b phases=1 Bus1=348.2 conn=wye kv=7.199557856794634 kw=8.84 kvar=2.2155128392846 Vminpu = 0.95 Vmaxpu = 1.05
New Load.load_349_b phases=1 Bus1=349.2 conn=wye kv=7.199557856794634 kw=3.8899999999999 kvar=0.9749258987349001 Vminpu = 0.95 Vmaxpu = 1.05
New Load.load_350_b phases=1 Bus1=350.2 conn=wye kv=7.199557856794634 kw=8.84 kvar=2.2155128392846 Vminpu = 0.95 Vmaxpu = 1.05
New Load.load_351_b phases=1 Bus1=351.2 conn=wye kv=7.199557856794634 kw=10.9041818094254 kvar=2.7328455656873003 Vminpu = 0.95 Vmaxpu = 1.05
New Load.load_352_b phases=1 Bus1=352.2 conn=wye kv=7.199557856794634 kw=12.7299999999999 kvar=3.1904387380196 Vminpu = 0.95 Vmaxpu = 1.05
New Load.load_353_b phases=1 Bus1=353.2 conn=wye kv=7.199557856794634 kw=14.5899999999999 kvar=3.6565986793171 Vminpu = 0.95 Vmaxpu = 1.05
New Load.load_355_a phases=1 Bus1=355.1 conn=wye kv=7.199557856794634 kw=5.32 kvar=1.3333176815604 Vminpu = 0.95 Vmaxpu = 1.05
New Load.load_356_a phases=1 Bus1=356.1 conn=wye kv=7.199557856794634 kw=8.87 kvar=2.2230315480152 Vminpu = 0.95 Vmaxpu = 1.05
New Load.load_359_a phases=1 Bus1=359.1 conn=wye kv=7.199557856794634 kw=8.3199999999999 kvar=2.0851885546208 Vminpu = 0.95 Vmaxpu = 1.05
New Load.load_360_c phases=1 Bus1=360.3 conn=wye kv=7.199557856794634 kw=8.4087350130081 kvar=2.107427645188 Vminpu = 0.95 Vmaxpu = 1.05
New Load.load_362_c phases=1 Bus1=362.3 conn=wye kv=7.199557856794634 kw=7.0699999999999 kvar=1.771909024179 Vminpu = 0.95 Vmaxpu = 1.05
New Load.load_363_c phases=1 Bus1=363.3 conn=wye kv=7.199557856794634 kw=10.1699999999999 kvar=2.5488422596747 Vminpu = 0.95 Vmaxpu = 1.05
New Load.load_364_a phases=1 Bus1=364.1 conn=wye kv=7.199557856794634 kw=8.87 kvar=2.2230315480152 Vminpu = 0.95 Vmaxpu = 1.05
...
