rawData/test/dss_scripts/Transformers.dss
 
! Put Source Impedance in as a Reactor
New Reactor.HVMV_Sub_HSB  bus1=1  bus2=2  r=0  x=(1.051 0.88 0.001 3 * - - 115 12.47 / sqr *) normamps=400  emergamps=400

! HV/MV Substation connected Delta/grounded-wye
New Transformer.HVMV115_69Sub  phases=3  windings=2  buses=(3, 4.1.2.3.0)
~ conns=(delta wye)
~ kvs=(115, 69)  kvas=(75000, 75000)  
~ xhl=7.05
~ wdg=1  %r=0.67
~ wdg=2  %r=0.67

! HV/MV Substation connected Delta/grounded-wye
New Transformer.HVMV69_11Sub1  phases=3  windings=2  buses=(632, 631.1.2.3.0)
~ conns=(wye wye)  
~ kvs=(69, 12.47)  kvas=(20000, 20000)  
~ xhl=7.94
~ wdg=1  %r=0.67
~ wdg=2  %r=0.67

! Three single-phase voltage regulators on feeder
! Define transformer part as low-impedance 2-winding Y-Y transformer
New Transformer.FEEDER_REG1A phases=1  windings=2  buses=(631.1,  630.1)  conns=(wye, wye)  kvs=(7.2, 7.2)  kvas=(27500, 27500)  xhl=0.1 %loadloss=.001 wdg=2 Maxtap=1.1 Mintap=0.9 ppm=0
New Transformer.FEEDER_REG1B phases=1  windings=2  buses=(631.2,  630.2)  conns=(wye, wye)  kvs=(7.2, 7.2)  kvas=(27500, 27500)  xhl=0.1 %loadloss=.001 wdg=2 Maxtap=1.1 Mintap=0.9 ppm=0
New Transformer.FEEDER_REG1C phases=1  windings=2  buses=(631.3,  630.3)  conns=(wye, wye)  kvs=(7.2, 7.2)  kvas=(27500, 27500)  xhl=0.1 %loadloss=.001 wdg=2 Maxtap=1.1 Mintap=0.9 ppm=0

! HV/MV Substation connected Delta/grounded-wye
New Transformer.HVMV69_11Sub2  phases=3  windings=2  buses=(17, 18.1.2.3.0)
~ conns=(wye wye)  
~ kvs=(69, 12.47)  kvas=(20000, 20000)  
~ xhl=7.94
~ wdg=1  %r=0.67
~ wdg=2  %r=0.67

! Three single-phase voltage regulators on feeder
! Define transformer part as low-impedance 2-winding Y-Y transformer
New Transformer.FEEDER_REG2A phases=1  windings=2  buses=(18.1,  19.1)  conns=(wye, wye)  kvs=(7.2, 7.2)  kvas=(27500, 27500)  xhl=0.1 %loadloss=.001 wdg=2 Maxtap=1.1 Mintap=0.9 ppm=0
New Transformer.FEEDER_REG2B phases=1  windings=2  buses=(18.2,  19.2)  conns=(wye, wye)  kvs=(7.2, 7.2)  kvas=(27500, 27500)  xhl=0.1 %loadloss=.001 wdg=2 Maxtap=1.1 Mintap=0.9 ppm=0
New Transformer.FEEDER_REG2C phases=1  windings=2  buses=(18.3,  19.3)  conns=(wye, wye)  kvs=(7.2, 7.2)  kvas=(27500, 27500)  xhl=0.1 %loadloss=.001 wdg=2 Maxtap=1.1 Mintap=0.9 ppm=0


! HV/MV Substation connected Delta/grounded-wye
New Transformer.HVMV69_11Sub3  phases=3  windings=2  buses=(2336, 2335.1.2.3.0)
~ conns=(wye wye)  
~ kvs=(69, 12.47)  kvas=(20000, 20000)  
~ xhl=7.94
~ wdg=1  %r=0.67
~ wdg=2  %r=0.67

! Three single-phase voltage regulators on feeder
! Define transformer part as low-impedance 2-winding Y-Y transformer
New Transformer.FEEDER_REG3A phases=1  windings=2  buses=(2335.1,  2334.1)  conns=(wye, wye)  kvs=(7.2, 7.2)  kvas=(27500, 27500)  xhl=0.1 %loadloss=.001 wdg=2 Maxtap=1.1 Mintap=0.9 ppm=0
New Transformer.FEEDER_REG3B phases=1  windings=2  buses=(2335.2,  2334.2)  conns=(wye, wye)  kvs=(7.2, 7.2)  kvas=(27500, 27500)  xhl=0.1 %loadloss=.001 wdg=2 Maxtap=1.1 Mintap=0.9 ppm=0
New Transformer.FEEDER_REG3C phases=1  windings=2  buses=(2335.3,  2334.3)  conns=(wye, wye)  kvs=(7.2, 7.2)  kvas=(27500, 27500)  xhl=0.1 %loadloss=.001 wdg=2 Maxtap=1.1 Mintap=0.9 ppm=0

! voltage regulator definitions

! Define three banks of single-phase regulators; each phase is controlled separately

! The regulating transformer is defined as a low-impedance, low-loss 2-winding, 1:1, Y-Y transformer to approximate an ideal regulator
! The control regulates winding 2

! Regulator No. 2

New Transformer.VREG2_A phases=1  windings=2  buses=(1284.1, 1283.1)  conns=(wye, wye)  kvs=(7.2, 7.2)  kvas=(10000, 10000)  xhl=0.1 %loadloss=.01 Wdg=2 Maxtap=1.1 Mintap=0.9 ppm=0
New Transformer.VREG2_B phases=1  windings=2  buses=(1284.2, 1283.2)  conns=(wye, wye)  kvs=(7.2, 7.2)  kvas=(10000, 10000)  xhl=0.1 %loadloss=.01 Wdg=2 Maxtap=1.1 Mintap=0.9 ppm=0
New Transformer.VREG2_C phases=1  windings=2  buses=(1284.3, 1283.3)  conns=(wye, wye)  kvs=(7.2, 7.2)  kvas=(10000, 10000)  xhl=0.1 %loadloss=.01 Wdg=2 Maxtap=1.1 Mintap=0.9 ppm=0


! Regulator No. 3

New Transformer.VREG3_A phases=1  windings=2  buses=(1377.1, 1376.1)  conns=(wye, wye)  kvs=(7.2, 7.2)  kvas=(10000, 10000)  xhl=0.1 %loadloss=.01 Wdg=2 Maxtap=1.1 Mintap=0.9 ppm=0
New Transformer.VREG3_B phases=1  windings=2  buses=(1377.2, 1376.2)  conns=(wye, wye)  kvs=(7.2, 7.2)  kvas=(10000, 10000)  xhl=0.1 %loadloss=.01 Wdg=2 Maxtap=1.1 Mintap=0.9 ppm=0
New Transformer.VREG3_C phases=1  windings=2  buses=(1377.3, 1376.3)  conns=(wye, wye)  kvs=(7.2, 7.2)  kvas=(10000, 10000)  xhl=0.1 %loadloss=.01 Wdg=2 Maxtap=1.1 Mintap=0.9 ppm=0


! Regulator No. 4

New Transformer.VREG4_A phases=1  windings=2  buses=(420.1, 419.1)  conns=(wye, wye)  kvs=(7.2, 7.2)  kvas=(10000, 10000)  xhl=0.1 %loadloss=.01 Wdg=2 Maxtap=1.1 Mintap=0.9 ppm=0
New Transformer.VREG4_B phases=1  windings=2  buses=(420.2, 419.2)  conns=(wye, wye)  kvs=(7.2, 7.2)  kvas=(10000, 10000)  xhl=0.1 %loadloss=.01 Wdg=2 Maxtap=1.1 Mintap=0.9 ppm=0
New Transformer.VREG4_C phases=1  windings=2  buses=(420.3, 419.3)  conns=(wye, wye)  kvs=(7.2, 7.2)  kvas=(10000, 10000)  xhl=0.1 %loadloss=.01 Wdg=2 Maxtap=1.1 Mintap=0.9 ppm=0

New Transformer.1209-DIES1 XHL=5.75  kVA=750 Conns=[wye, wye]
~ wdg=1 bus=571.1.2.3  kV=12.47
~ wdg=2 bus=572  kV=0.480

New Transformer.1142-LNG1 XHL=5.75  kVA=150 Conns=[wye, wye]
~ wdg=1 bus=2602.1.2.3  kV=12.47
~ wdg=2 bus=2603   kV=0.480

New Transformer.2001-MT123 XHL=5.75  kVA=750 Conns=[wye, wye]
~ wdg=1 bus=100.1.2.3  kV=12.47
~ wdg=2 bus=106   kV=0.480

New Transformer.1089-LNG1 XHL=5.75  kVA=2000 Conns=[wye, wye]
~ wdg=1 bus=2555.1.2.3  kV=12.47
~ wdg=2 bus=2556   kV=0.480

New Transformer.1089-DIES1 XHL=5.75  kVA=750 Conns=[wye, wye]
~ wdg=1 bus=1341.1.2.3    kV=12.47
~ wdg=2 bus=1342     kV=0.480

New Transformer.1069-MT1 XHL=5.75  kVA=300 Conns=[wye, wye]
~ wdg=1 bus=2473.1.2.3  kV=12.47
~ wdg=2 bus=2474   kV=0.480

New Transformer.1209-WT123 XHL=5.75  kVA=250 Conns=[wye, wye]
~ wdg=1 bus=685.1.2.3  kV=12.47
~ wdg=2 bus=686    kV=0.480

New Transformer.2001-ESS12 XHL=5.75  kVA=750 Conns=[wye, wye]
~ wdg=1 bus=100.1.2.3     kV=12.47
~ wdg=2 bus=101      kV=0.480







